CE
GW  1  13  -1.486  0  15  1.4855  0  15  7.95e-3
GW  2  13  -1.436  1.495  15  1.4355  1.495  15  7.95e-3
GW  3  13  -1.331  3.225  15  1.3305  3.225  15  7.95e-3
GW  4  13  -1.32  5.654  15  1.3195  5.654  15  7.95e-3
GW  5  13  -1.324  7.588  15  1.3235  7.588  15  7.95e-3
GW  6  13  -1.193  10.112  15  1.1925  10.112  15  7.95e-3
GE  1
EX  0  2  7  0  1  0
GN  2  0  0  0  10  0.002
FR  0  1  0  0  49.5  0
RP 0 90 361 1000 0 0.0 1 1.0
EN
